Circuit: * C:\Users\SERGIO\Documents\Diseño_UNCargador\evse-schemas\Comunicacion\simulacion\Draft1.asc

Direct Newton iteration for .op point succeeded.

Date: Tue May 16 09:54:25 2023
Total elapsed time: 0.100 seconds.

tnom = 27
temp = 27
method = modified trap
totiter = 4288
traniter = 4263
tranpoints = 1685
accept = 1598
rejected = 87
matrix size = 40
fillins = 50
solver = Normal
Matrix Compiler1: 4.06 KB object code size  1.7/0.7/[0.5]
Matrix Compiler2: 3.93 KB object code size  0.6/0.8/[0.6]

