Circuit: * D:\Backup\UNAL\Semestre 11\Diseño de sistemas electrónicos\simulacion\Draft1.asc

Direct Newton iteration for .op point succeeded.

Date: Mon Mar 27 21:45:54 2023
Total elapsed time: 0.088 seconds.

tnom = 27
temp = 27
method = modified trap
totiter = 4246
traniter = 4221
tranpoints = 1677
accept = 1596
rejected = 81
matrix size = 40
fillins = 57
solver = Normal
Matrix Compiler1: 4.69 KB object code size  0.7/0.4/[0.2]
Matrix Compiler2: off  [0.3]/0.4/0.3

