Circuit: * C:\Users\manpe\Desktop\electronic systems design\control pilot\simulation\schematic\Draft3.asc

WARNING: Less than two connections to node pilotpwm.  This node is used by v1.
.OP point found by inspection.

Date: Tue May 23 10:24:59 2023
Total elapsed time: 0.105 seconds.

tnom = 27
temp = 27
method = modified trap
totiter = 1052
traniter = 1052
tranpoints = 527
accept = 427
rejected = 100
matrix size = 2
fillins = 0
solver = Normal
Avg thread counts: 1.9/2.8/2.8/1.9
Matrix Compiler1: off  [0.1]/0.2/0.2
Matrix Compiler2: off  [0.1]/0.2/0.2

