Circuit: * C:\Users\manpe\Desktop\electronic systems design\control pilot\simulation\schematic\control_pilot.asc

Direct Newton iteration for .op point succeeded.

Date: Sun May 28 17:03:20 2023
Total elapsed time: 0.139 seconds.

tnom = 27
temp = 27
method = modified trap
totiter = 3692
traniter = 3674
tranpoints = 1185
accept = 898
rejected = 287
matrix size = 41
fillins = 47
solver = Normal
Avg thread counts: 1.3/1.8/1.8/1.3
Matrix Compiler1: 4.28 KB object code size  2.4/0.9/[0.7]
Matrix Compiler2: 4.01 KB object code size  0.9/1.0/[0.9]

