Circuit: * Model for uA741 Op Amp (from EVAL library in PSpice)

Fatal Error: No analysis request found.
